*Heading
** Job name: Mesh_005 Model name: Model-1
** Generated by: Abaqus/CAE 2017
*Preprint, echo=NO, model=NO, history=NO, contact=NO
**
** PARTS
**
*Part, name=Blade
*Node
      1,           0., 0.0419850126, 0.0941395685
      2,  0.993093193, 0.0694102794, 0.0799999982
      3,  0.780964255, 0.0726665482, -0.00154675369
      4,  0.991112828, 0.0893119946,           0.
      5,           0.,  0.049240388, -0.0086824093
      6,  0.995073557, 0.0495085679, 0.0799999982
      7,  0.995073557, 0.0495085679,           0.
      8,           0.,           0.,           0.
      9,           0., 0.0173648186,  0.098480776
     10,  0.993093193, 0.0694102794, -0.0799999982
     11,  0.995073557, 0.0495085679, -0.0799999982
     12,           0., -0.0173648186, -0.098480776
     13,           0., 0.00725537585, -0.102821983
     14,   1.99897838,  0.205108285, -0.0295442324
     15,           2.,  0.200000003,           0.
     16,   1.99608135,   0.21959354, -0.0269395094
     17,   1.99420595,  0.228970498, 0.00520944549
     18,   1.35744488,  0.128787369, 0.00231870892
     19,   1.63472688,  0.167491138, 0.00375518762
     20,           0., -0.00725537585,  0.102821983
** ... 595 like lines cut
*Element, type=C3D8R
 1,   9,  88, 407, 109,   1,  31, 388,  69
 2,  88,  87, 408, 407,  31,  32, 389, 388
 3,  87,  86, 409, 408,  32,  33, 390, 389
 4,  86,  85, 410, 409,  33,  34, 391, 390
 5,  85,  84, 411, 410,  34,  35, 392, 391
 6,  84,  83, 412, 411,  35,  36, 393, 392
 7,  83,  82, 413, 412,  36,  37, 394, 393
 8,  82,  81, 414, 413,  37,  38, 395, 394
 9,  81,  80, 415, 414,  38,  39, 396, 395
10,  80,  79, 416, 415,  39,  40, 397, 396
11,  79,  78, 417, 416,  40,  41, 398, 397
12,  78,  77, 418, 417,  41,  42, 399, 398
13,  77,  76, 419, 418,  42,  43, 400, 399
14,  76,  75, 420, 419,  43,  44, 401, 400
15,  75,  74, 421, 420,  44,  45, 402, 401
16,  74,  73, 422, 421,  45,  46, 403, 402
17,  73,  72, 423, 422,  46,  47, 404, 403
18,  72,  71, 424, 423,  47,  48, 405, 404
19,  71,  70, 425, 424,  48,  49, 406, 405
20,  70,   6,  89, 425,  49,   2,  50, 406
** ... 300 like lines cut
*Nset, nset=All, generate
   1,  615,    1
*Elset, elset=All, generate
   1,  320,    1
*Nset, nset=BC
   1,   5,   8,   9,  12,  13,  20,  23,  25,  69, 109, 112, 113, 266, 269
*Elset, elset=BC
   1,  21,  79,  80, 121, 141, 199, 200
*Elset, elset=_Wind_S6, internal
 161, 162, 163, 164, 165, 166, 167, 168, 169, 170, 171, 172, 173, 174, 175, 176
 177, 178, 179, 180, 181, 182, 183, 184, 185, 186, 187, 188, 189, 190, 191, 192
 193, 194, 195, 196, 197, 198, 199, 200, 281, 282, 283, 284, 285, 286, 287, 288
 289, 290, 291, 292, 293, 294, 295, 296, 297, 298, 299, 300, 301, 302, 303, 304
 305, 306, 307, 308, 309, 310, 311, 312, 313, 314, 315, 316, 317, 318, 319, 320
*Elset, elset=_Wind_S2, internal, generate
 201,  240,    1
*Elset, elset=_Wind_S3, internal, generate
 121,  160,    1
*Surface, type=ELEMENT, name=Wind
_Wind_S6, S6
_Wind_S2, S2
_Wind_S3, S3
** Section: Steel
*Solid Section, elset=All, material=Steel
,
*End Part
**  
**
** ASSEMBLY
**
*Assembly, name=Assembly
**  
*Instance, name=Blade-1, part=Blade
*End Instance
**  
*End Assembly
** 
** MATERIALS
** 
*Material, name=Steel
*Density
1300.,
*Elastic
 5e+10, 0.3
** 
** BOUNDARY CONDITIONS
** 
** Name: BC Type: Displacement/Rotation
*Boundary
Blade-1.BC, 1, 1
Blade-1.BC, 2, 2
Blade-1.BC, 3, 3
Blade-1.BC, 4, 4
Blade-1.BC, 5, 5
Blade-1.BC, 6, 6
** ----------------------------------------------------------------
** 
** STEP: Step-1
** 
*Step, name=Step-1, nlgeom=NO, inc=10000
*Static
1., 1., 1e-05, 1.
** 
** LOADS
** 
** Name: G   Type: Gravity
*Dload
, GRAV, 9.81, 0., 0., -1.
** Name: Wind   Type: Pressure
*Dsload
Blade-1.Wind, P, 1000.
** 
** OUTPUT REQUESTS
** 
*Restart, write, frequency=0
** 
** FIELD OUTPUT: F-Output-1
** 
*Output, field, variable=PRESELECT
** 
** HISTORY OUTPUT: H-Output-1
** 
*Output, history, variable=PRESELECT
*End Step
