*Heading
** Job name: Mesh_01 Model name: Model-1
** Generated by: Abaqus/CAE 2017
*Preprint, echo=NO, model=NO, history=NO, contact=NO
**
** PARTS
**
*Part, name=Blade
*Node
      1,           0., 0.0419850126, 0.0941395685
      2,  0.993093193, 0.0694102794, 0.0799999982
      3,  0.780964255, 0.0726665482, -0.00154675369
      4,  0.991112828, 0.0893119946,           0.
      5,           0.,  0.049240388, -0.0086824093
      6,  0.995073557, 0.0495085679, 0.0799999982
      7,  0.995073557, 0.0495085679,           0.
      8,           0.,           0.,           0.
      9,           0., 0.0173648186,  0.098480776
     10,  0.993093193, 0.0694102794, -0.0799999982
     11,  0.995073557, 0.0495085679, -0.0799999982
     12,           0., -0.0173648186, -0.098480776
     13,           0., 0.00725537585, -0.102821983
     14,   1.99897838,  0.205108285, -0.0295442324
     15,           2.,  0.200000003,           0.
     16,   1.99608135,   0.21959354, -0.0269395094
     17,   1.99420595,  0.228970498, 0.00520944549
     18,   1.35744488,  0.128787369, 0.00231870892
     19,   1.63472688,  0.167491138, 0.00375518762
     20,           0., -0.00725537585,  0.102821983
** ... 178 like lines cut
*Element, type=C3D8R
 1,  9, 56, 57,  8,  1, 31, 46,  5
 2, 56, 55, 58, 57, 31, 32, 45, 46
 3, 55, 54, 59, 58, 32, 33, 44, 45
 4, 54, 53, 60, 59, 33, 34, 43, 44
 5, 53, 52, 61, 60, 34, 35, 42, 43
 6, 52, 51, 62, 61, 35, 36, 41, 42
 7, 51, 50, 63, 62, 36, 37, 40, 41
 8, 50, 49, 64, 63, 37, 38,  3, 40
 9, 49, 48, 65, 64, 38, 39, 47,  3
10, 48,  6,  7, 65, 39,  2,  4, 47
11, 83, 47, 65, 66, 10,  4,  7, 11
12, 82,  3, 64, 67, 83, 47, 65, 66
13, 81, 40, 63, 68, 82,  3, 64, 67
14, 80, 41, 62, 69, 81, 40, 63, 68
15, 79, 42, 61, 70, 80, 41, 62, 69
16, 78, 43, 60, 71, 79, 42, 61, 70
17, 77, 44, 59, 72, 78, 43, 60, 71
18, 76, 45, 58, 73, 77, 44, 59, 72
19, 75, 46, 57, 74, 76, 45, 58, 73
20, 13,  5,  8, 12, 75, 46, 57, 74
** ... 64 like lines cut
*Nset, nset=All, generate
   1,  198,    1
*Elset, elset=All, generate
  1,  84,   1
*Nset, nset=BC
  1,  5,  8,  9, 12, 13, 20, 23, 25
*Elset, elset=BC
  1, 20, 32, 51
*Elset, elset=_Wind_S6, internal
 42, 43, 44, 45, 46, 47, 48, 49, 50, 51, 74, 75, 76, 77, 78, 79
 80, 81, 82, 83, 84
*Elset, elset=_Wind_S2, internal, generate
 52,  62,   1
*Elset, elset=_Wind_S3, internal, generate
 32,  41,   1
*Surface, type=ELEMENT, name=Wind
_Wind_S6, S6
_Wind_S2, S2
_Wind_S3, S3
** Section: Steel
*Solid Section, elset=All, material=Steel
,
*End Part
**  
**
** ASSEMBLY
**
*Assembly, name=Assembly
**  
*Instance, name=Blade-1, part=Blade
*End Instance
**  
*End Assembly
** 
** MATERIALS
** 
*Material, name=Steel
*Density
1300.,
*Elastic
 5e+10, 0.3
** 
** BOUNDARY CONDITIONS
** 
** Name: BC Type: Displacement/Rotation
*Boundary
Blade-1.BC, 1, 1
Blade-1.BC, 2, 2
Blade-1.BC, 3, 3
Blade-1.BC, 4, 4
Blade-1.BC, 5, 5
Blade-1.BC, 6, 6
** ----------------------------------------------------------------
** 
** STEP: Step-1
** 
*Step, name=Step-1, nlgeom=NO, inc=10000
*Static
1., 1., 1e-05, 1.
** 
** LOADS
** 
** Name: G   Type: Gravity
*Dload
, GRAV, 9.81, 0., 0., -1.
** Name: Wind   Type: Pressure
*Dsload
Blade-1.Wind, P, 1000.
** 
** OUTPUT REQUESTS
** 
*Restart, write, frequency=0
** 
** FIELD OUTPUT: F-Output-1
** 
*Output, field, variable=PRESELECT
** 
** HISTORY OUTPUT: H-Output-1
** 
*Output, history, variable=PRESELECT
*End Step
