*Heading
** Job name: Mesh_0025 Model name: Model-1
** Generated by: Abaqus/CAE 2017
*Preprint, echo=NO, model=NO, history=NO, contact=NO
**
** PARTS
**
*Part, name=Blade
*Node
      1,           0., 0.0419850126, 0.0941395685
      2,  0.993093193, 0.0694102794, 0.0799999982
      3,  0.780964255, 0.0726665482, -0.00154675369
      4,  0.991112828, 0.0893119946,           0.
      5,           0.,  0.049240388, -0.0086824093
      6,  0.995073557, 0.0495085679, 0.0799999982
      7,  0.995073557, 0.0495085679,           0.
      8,           0.,           0.,           0.
      9,           0., 0.0173648186,  0.098480776
     10,  0.993093193, 0.0694102794, -0.0799999982
     11,  0.995073557, 0.0495085679, -0.0799999982
     12,           0., -0.0173648186, -0.098480776
     13,           0., 0.00725537585, -0.102821983
     14,   1.99897838,  0.205108285, -0.0295442324
     15,           2.,  0.200000003,           0.
     16,   1.99608135,   0.21959354, -0.0269395094
     17,   1.99420595,  0.228970498, 0.00520944549
     18,   1.35744488,  0.128787369, 0.00231870892
     19,   1.63472688,  0.167491138, 0.00375518762
     20,           0., -0.00725537585,  0.102821983
** ... 1702 like lines cut
*Element, type=C3D8R
  1,   9, 150, 853, 192,   1,  31, 775, 111
  2, 150, 149, 854, 853,  31,  32, 776, 775
  3, 149, 148, 855, 854,  32,  33, 777, 776
  4, 148, 147, 856, 855,  33,  34, 778, 777
  5, 147, 146, 857, 856,  34,  35, 779, 778
  6, 146, 145, 858, 857,  35,  36, 780, 779
  7, 145, 144, 859, 858,  36,  37, 781, 780
  8, 144, 143, 860, 859,  37,  38, 782, 781
  9, 143, 142, 861, 860,  38,  39, 783, 782
 10, 142, 141, 862, 861,  39,  40, 784, 783
 11, 141, 140, 863, 862,  40,  41, 785, 784
 12, 140, 139, 864, 863,  41,  42, 786, 785
 13, 139, 138, 865, 864,  42,  43, 787, 786
 14, 138, 137, 866, 865,  43,  44, 788, 787
 15, 137, 136, 867, 866,  44,  45, 789, 788
 16, 136, 135, 868, 867,  45,  46, 790, 789
 17, 135, 134, 869, 868,  46,  47, 791, 790
 18, 134, 133, 870, 869,  47,  48, 792, 791
 19, 133, 132, 871, 870,  48,  49, 793, 792
 20, 132, 131, 872, 871,  49,  50, 794, 793
** ... 952 like lines cut
*Nset, nset=All, generate
    1,  1722,     1
*Elset, elset=All, generate
   1,  972,    1
*Nset, nset=BC
   1,   5,   8,   9,  12,  13,  20,  23,  25, 110, 111, 192, 193, 198, 199, 200
 201, 520, 521, 526, 527
*Elset, elset=BC
   1,  41,  81, 238, 239, 240, 364, 404, 444, 601, 602, 603
*Elset, elset=_Wind_S6, internal
 484, 485, 486, 487, 488, 489, 490, 491, 492, 493, 494, 495, 496, 497, 498, 499
 500, 501, 502, 503, 504, 505, 506, 507, 508, 509, 510, 511, 512, 513, 514, 515
 516, 517, 518, 519, 520, 521, 522, 523, 524, 525, 526, 527, 528, 529, 530, 531
 532, 533, 534, 535, 536, 537, 538, 539, 540, 541, 542, 543, 544, 545, 546, 547
 548, 549, 550, 551, 552, 553, 554, 555, 556, 557, 558, 559, 560, 561, 562, 563
 564, 565, 566, 567, 568, 569, 570, 571, 572, 573, 574, 575, 576, 577, 578, 579
 580, 581, 582, 583, 584, 585, 586, 587, 588, 589, 590, 591, 592, 593, 594, 595
 596, 597, 598, 599, 600, 601, 602, 603, 850, 851, 852, 853, 854, 855, 856, 857
 858, 859, 860, 861, 862, 863, 864, 865, 866, 867, 868, 869, 870, 871, 872, 873
 874, 875, 876, 877, 878, 879, 880, 881, 882, 883, 884, 885, 886, 887, 888, 889
 890, 891, 892, 893, 894, 895, 896, 897, 898, 899, 900, 901, 902, 903, 904, 905
 906, 907, 908, 909, 910, 911, 912, 913, 914, 915, 916, 917, 918, 919, 920, 921
 922, 923, 924, 925, 926, 927, 928, 929, 930, 931, 932, 933, 934, 935, 936, 937
 938, 939, 940, 941, 942, 943, 944, 945, 946, 947, 948, 949, 950, 951, 952, 953
 954, 955, 956, 957, 958, 959, 960, 961, 962, 963, 964, 965, 966, 967, 968, 969
 970, 971, 972
*Elset, elset=_Wind_S2, internal, generate
 604,  726,    1
*Elset, elset=_Wind_S3, internal, generate
 364,  483,    1
*Surface, type=ELEMENT, name=Wind
_Wind_S6, S6
_Wind_S2, S2
_Wind_S3, S3
** Section: Steel
*Solid Section, elset=All, material=Steel
,
*End Part
**  
**
** ASSEMBLY
**
*Assembly, name=Assembly
**  
*Instance, name=Blade-1, part=Blade
*End Instance
**  
*End Assembly
** 
** MATERIALS
** 
*Material, name=Steel
*Density
1300.,
*Elastic
 5e+10, 0.3
** 
** BOUNDARY CONDITIONS
** 
** Name: BC Type: Displacement/Rotation
*Boundary
Blade-1.BC, 1, 1
Blade-1.BC, 2, 2
Blade-1.BC, 3, 3
Blade-1.BC, 4, 4
Blade-1.BC, 5, 5
Blade-1.BC, 6, 6
** ----------------------------------------------------------------
** 
** STEP: Step-1
** 
*Step, name=Step-1, nlgeom=NO, inc=10000
*Static
1., 1., 1e-05, 1.
** 
** LOADS
** 
** Name: G   Type: Gravity
*Dload
, GRAV, 9.81, 0., 0., -1.
** Name: Wind   Type: Pressure
*Dsload
Blade-1.Wind, P, 1000.
** 
** OUTPUT REQUESTS
** 
*Restart, write, frequency=0
** 
** FIELD OUTPUT: F-Output-1
** 
*Output, field, variable=PRESELECT
** 
** HISTORY OUTPUT: H-Output-1
** 
*Output, history, variable=PRESELECT
*End Step
